--------- BEAMDYN with OpenFAST INPUT FILE -------------------------------------------
 SNL 5.0 MW Offshore baseline blade input for Beamdyn written by SFY 20221130.
---------------------- SIMULATION CONTROL --------------------------------------
False         Echo             - Echo input data to "<RootName>.ech"? (flag)
True          QuasiStaticInit  - Use quasi-static pre-conditioning with centripetal accelerations in initialization? (flag) [dynamic solve only]
          0   rhoinf           - Numerical damping parameter for generalized-alpha integrator
          2   quadrature       - Quadrature method: 1=Gaussian; 2=Trapezoidal (switch)
20     refine           - Refinement factor for trapezoidal quadrature (-) [DEFAULT = 1; used only when quadrature=2]
"DEFAULT"     n_fact           - Factorization frequency for the Jacobian in N-R iteration(-) [DEFAULT = 5]
"DEFAULT"     DTBeam           - Time step size (s)
"DEFAULT"     load_retries     - Number of factored load retries before quitting the simulation [DEFAULT = 20]
500           NRMax            - Max number of iterations in Newton-Raphson algorithm (-) [DEFAULT = 10]
"DEFAULT"     stop_tol         - Tolerance for stopping criterion (-) [DEFAULT = 1E-5]
"DEFAULT"     tngt_stf_fd      - Use finite differenced tangent stiffness matrix? (flag)
"DEFAULT"     tngt_stf_comp    - Compare analytical finite differenced tangent stiffness matrix? (flag)
"DEFAULT"     tngt_stf_pert    - Perturbation size for finite differencing (-) [DEFAULT = 1E-6]
"DEFAULT"     tngt_stf_difftol - Maximum allowable relative difference between analytical and fd tangent stiffness (-); [DEFAULT = 0.1]
True          RotStates        - Orient states in the rotating frame during linearization? (flag) [used only when linearizing] 
---------------------- GEOMETRY PARAMETER --------------------------------------
          1   member_total    - Total number of members (-)
         38   kp_total        - Total number of key points (-) [must be at least 3]
     1     38                 - Member number; Number of key points in this member
   kp_xr         kp_yr         kp_zr        initial_twist
   (m)            (m)          (m)            (deg)
0.0000000E+00  0.0000000E+00  0.0000000E+00  1.3308000E+01
0.0000000E+00  0.0000000E+00  0.3000000E+00  1.3308000E+01
0.0000000E+00  0.0000000E+00  0.4000000E+00  1.3308000E+01
0.0000000E+00  0.0000000E+00  0.5000000E+00  1.3308000E+01
0.0000000E+00  0.0000000E+00  0.6000000E+00  1.3308000E+01
0.0000000E+00  0.0000000E+00  0.7000000E+00  1.3308000E+01
0.0000000E+00  0.0000000E+00  0.8000000E+00  1.3308000E+01
0.0000000E+00  0.0000000E+00  1.3667000E+00  1.3308000E+01
0.0000000E+00  0.0000000E+00  1.5000000E+00  1.3308000E+01
0.0000000E+00  0.0000000E+00  1.6000000E+00  1.3308000E+01
0.0000000E+00  0.0000000E+00  4.1000000E+00  1.3308000E+01
0.0000000E+00  0.0000000E+00  5.5000000E+00  1.3308000E+01
0.0000000E+00  0.0000000E+00  6.8333000E+00  1.3308000E+01
0.0000000E+00  0.0000000E+00  9.0000000E+00  1.3308000E+01
0.0000000E+00  0.0000000E+00  10.250000E+00  1.3308000E+01
0.0000000E+00  0.0000000E+00  12.000000E+00  1.2530000E+01
0.0000000E+00  0.0000000E+00  14.350000E+00  1.1480000E+01
0.0000000E+00  0.0000000E+00  17.000000E+00  1.0680000E+01
0.0000000E+00  0.0000000E+00  18.450000E+00  1.0162000E+01
0.0000000E+00  0.0000000E+00  20.500000E+00  9.6300000E+00
0.0000000E+00  0.0000000E+00  22.550000E+00  9.0110000E+00
0.0000000E+00  0.0000000E+00  24.600000E+00  8.4000000E+00
0.0000000E+00  0.0000000E+00  26.650000E+00  7.7950000E+00
0.0000000E+00  0.0000000E+00  30.750000E+00  6.5440000E+00
0.0000000E+00  0.0000000E+00  32.000000E+00  6.1800000E+00
0.0000000E+00  0.0000000E+00  34.850000E+00  5.3610000E+00
0.0000000E+00  0.0000000E+00  37.000000E+00  4.7500000E+00
0.0000000E+00  0.0000000E+00  38.950000E+00  4.1880000E+00
0.0000000E+00  0.0000000E+00  41.000000E+00  3.6600000E+00
0.0000000E+00  0.0000000E+00  42.000000E+00  3.4000000E+00
0.0000000E+00  0.0000000E+00  43.050000E+00  3.1250000E+00
0.0000000E+00  0.0000000E+00  45.000000E+00  2.7400000E+00
0.0000000E+00  0.0000000E+00  47.150000E+00  2.3190000E+00
0.0000000E+00  0.0000000E+00  51.250000E+00  1.5260000E+00
0.0000000E+00  0.0000000E+00  54.666700E+00  0.8630000E+00
0.0000000E+00  0.0000000E+00  57.400000E+00  0.3700000E+00
0.0000000E+00  0.0000000E+00  60.133300E+00  0.1060000E+00
0.0000000E+00  0.0000000E+00  61.500000E+00  0.0000000E+00
---------------------- MESH PARAMETER ------------------------------------------
          10   order_elem     - Order of interpolation (basis) function (-)
---------------------- MATERIAL PARAMETER --------------------------------------
"SNLOffshrBsline5MW_BeamDyn_Blade_CM_Sfy.dat"    BldFile - Name of file containing properties for blade (quoted string)
---------------------- PITCH ACTUATOR PARAMETERS -------------------------------
False         UsePitchAct - Whether a pitch actuator should be used (flag)
        200   PitchJ      - Pitch actuator inertia (kg-m^2) [used only when UsePitchAct is true]
      2E+07   PitchK      - Pitch actuator stiffness (kg-m^2/s^2) [used only when UsePitchAct is true]
     500000   PitchC      - Pitch actuator damping (kg-m^2/s) [used only when UsePitchAct is true]
---------------------- OUTPUTS -------------------------------------------------
True          SumPrint       - Print summary data to "<RootName>.sum" (flag)
"ES10.3E2"    OutFmt          - Format used for text tabular output, excluding the time channel.
         200   NNodeOuts      - Number of nodes to output to file [0 - 9] (-)
1,2,3,4,5,6,7,8,9    OutNd          - Nodes whose values will be output  (-)
          OutList        - The next line(s) contains a list of output parameters. See OutListParameters.xlsx for a listing of available output channels, (-)
"RootFxr, RootFyr, RootFzr"  
"RootMxr, RootMyr, RootMzr"  
"TipRDxr, TipRDyr, TipRDzr"
"TipTDxr, TipTDyr, TipTDzr"  
END of input file (the word "END" must appear in the first 3 columns of this last OutList line)
---------------------- NODE OUTPUTS --------------------------------------------
         200   BldNd_BlOutNd   - Blade nodes on each blade (currently unused)
              OutList     - The next line(s) contains a list of output parameters.  See OutListParameters.xlsx, BeamDyn_Nodes tab for a listing of available output channels, (-)
"Fxr" 
"Fyr" 
"Fzr" 
"Mxr" 
"Myr" 
"Mzr" 
"TDxr"
"TDyr"
"TDzr"
END of input file (the word "END" must appear in the first 3 columns of this last OutList line)
---------------------------------------------------------------------------------------